*MATERIAL,NAME=M__embedding
*ELASTIC
210000.0,0.3
*MATERIAL,NAME=M__micro
*DEPVAR
120
*USER MATERIAL,CONSTANTS=12
263700.0,120473.0,79082.0,12.0,119.78,0.001,100.0,2.0
3.0,25550.89,1353.307,8.0
